/*---------------------------------------------------------------------------*\               
| =========                 |                                                 |                
| \\      /  F ield         | OpenFOAM: The Open Source CFD Toolbox           |                
|  \\    /   O peration     | Version:  2.3                                   |                
|   \\  /    A nd           | Web:      http://www.openfoam.org               |                
|    \\/     M anipulation  |                                                 |                
\*---------------------------------------------------------------------------*/                
                                        
FoamFile                                
{                                       
    version         2.3;                
    format          ascii;              
                                        
    root            "";               
    case            "";               
    instance        "";               
    local           "";               
                                        
    class           dictionary;         
    object          blockMeshDict;      
}          


pi              3.141592653589793;
radPiQuarter    #calc "$pi/4";
convertToMeters 0.001;

R1X 2.125; // fuel
R0X #calc "$R1X*0.26"; // fuel
R2X 41.; // coflow
R3X 90.;// air

MR1X #calc "-$R1X"; // fuel
MR0X #calc "-$R0X"; // fuel
MR2X #calc "-$R2X"; // coflow
MR3X #calc "-$R3X";// air

circR1X #calc "$R1X*cos($radPiQuarter)";
circR0X #calc "$R0X*0.85";
circR2X #calc "$R2X*cos($radPiQuarter)";
circR3X #calc "$R3X*cos($radPiQuarter)";


McircR1X #calc "-$circR1X";
McircR0X #calc "-$circR0X";
McircR2X #calc "-$circR2X";
McircR3X #calc "-$circR3X";

L  180.;


vertices                                
(   

    //bottom
    (0.   $circR0X     $circR0X        ) //0
    (0.   $McircR0X    $circR0X        ) //1
    (0.   $McircR0X    $McircR0X       ) //2
    (0.   $circR0X     $McircR0X       ) //3

    (0.   $circR1X     $circR1X        ) //4
    (0.   $McircR1X    $circR1X        ) //5
    (0.   $McircR1X    $McircR1X       ) //6
    (0.   $circR1X     $McircR1X       ) //7
    
    (0.   $circR2X     $circR2X        ) //8
    (0.   $McircR2X     $circR2X       ) //9
    (0.   $McircR2X    $McircR2X       ) //10
    (0.   $circR2X    $McircR2X        ) //11

    (0.   $circR3X     $circR3X        ) //12
    (0.   $McircR3X     $circR3X       ) //13
    (0.   $McircR3X    $McircR3X       ) //14
    (0.   $circR3X    $McircR3X        ) //15
   
    //top

    ($L   $circR0X     $circR0X        ) //16
    ($L   $McircR0X    $circR0X        ) //17
    ($L   $McircR0X    $McircR0X       ) //18
    ($L   $circR0X     $McircR0X       ) //19

    ($L   $circR1X     $circR1X        ) //20
    ($L   $McircR1X     $circR1X       ) //21
    ($L   $McircR1X    $McircR1X       ) //22
    ($L   $circR1X    $McircR1X        ) //23
    
    ($L   $circR2X     $circR2X        ) //24
    ($L   $McircR2X     $circR2X       ) //25
    ($L   $McircR2X    $McircR2X       ) //26
    ($L   $circR2X    $McircR2X        ) //27

    ($L   $circR3X     $circR3X        ) //28
    ($L   $McircR3X     $circR3X       ) //29
    ($L   $McircR3X    $McircR3X       ) //30
    ($L   $circR3X    $McircR3X        ) //31

);

nFuelInternal          16;
nFuel                  18;
nCoflow                85;
nExternal              55;

nLength                150;


gradingFuel                         (
            (0.3 0.3 1)    // 30% y-dir, 30% cells, expansion = 4
            (0.5 0.4 1)    // 60% y-dir, 40% cells, expansion = 1
            (0.2 0.3 0.5) // 20% y-dir, 30% cells, expansion = 0.25 (1/4)
        );
gradingCoflow                 (
            (0.1 0.3 6)    // 20% y-dir, 30% cells, expansion = 4
            (0.7 0.5 1)    // 60% y-dir, 40% cells, expansion = 1
            (0.2 0.2 0.5) // 20% y-dir, 30% cells, expansion = 0.25 (1/4)
        );
gradingExternal              3;
gradingLength                9;


blocks
( 	
	// FuelInternal
	hex (0 1 2 3 16 17 18 19)         ($nFuelInternal  $nFuelInternal $nLength )  	simpleGrading   (1  1 $gradingLength	)

       // Fuel
	hex (0 4 5 1 16 20 21 17)         ($nFuel  $nFuelInternal $nLength )  		simpleGrading   ($gradingFuel  1. $gradingLength	)
	hex (3 7 4 0 19 23 20 16)         ($nFuel  $nFuelInternal $nLength )  		simpleGrading   ($gradingFuel  1. $gradingLength	)
	hex (2 6 7 3 18 22 23 19)         ($nFuel  $nFuelInternal $nLength )  		simpleGrading   ($gradingFuel  1. $gradingLength	)
	hex (1 5 6 2 17 21 22 18)         ($nFuel  $nFuelInternal $nLength )  		simpleGrading   ($gradingFuel  1. $gradingLength	)

	// Coflow
	hex (4 8 9 5 20 24 25 21)  ($nCoflow $nFuelInternal $nLength )  	simpleGrading   ($gradingCoflow  1. $gradingLength	)
	hex (7 11 8 4 23 27 24 20) ($nCoflow $nFuelInternal $nLength )  	simpleGrading   ($gradingCoflow  1. $gradingLength	)
	hex (6 10 11 7 22 26 27 23)($nCoflow $nFuelInternal $nLength )  	simpleGrading   ($gradingCoflow  1. $gradingLength	)
	hex (5 9 10 6 21 25 26 22) ($nCoflow $nFuelInternal $nLength )  	simpleGrading   ($gradingCoflow  1. $gradingLength	)


	// External
	hex (8 12 13 9 24 28 29 25)  ($nExternal $nFuelInternal $nLength )  	simpleGrading   ($gradingExternal  1. $gradingLength	)
	hex (11 15 12 8 27 31 28 24) ($nExternal $nFuelInternal $nLength )  	simpleGrading   ($gradingExternal  1. $gradingLength	)
	hex (10 14 15 11 26 30 31 27)($nExternal $nFuelInternal $nLength )      simpleGrading   ($gradingExternal  1. $gradingLength	)
	hex (9 13 14 10 25 29 30 26) ($nExternal $nFuelInternal $nLength )  	simpleGrading   ($gradingExternal  1. $gradingLength	)



);

                                 

edges
(


    //bottom
    arc 0 1   (0.   0. 	$R0X  			)
    arc 1 2   (0.   $MR0X   	0.  			)
    arc 2 3   (0.   0. 	$MR0X      		)
    arc 3 0   (0.   $R0X  	0.      	      )
    
    arc 4 5   (0.   0. 	$R1X  			)
    arc 5 6   (0.   $MR1X   	0. 			)
    arc 6 7   (0.   0. 	$MR1X      		)
    arc 7 4   (0.   $R1X  	0.      	      )

    arc 8 9     (0.   0. 	$R2X  			)
    arc 9 10    (0.   $MR2X   0.  			)
    arc 10 11   (0.   0. 	$MR2X      		) 
    arc 11 8    (0.   $R2X  	0.      	      )

    arc 12 13   (0.   0. 	$R3X  			)
    arc 13 14   (0.   $MR3X   0.  			) 
    arc 14 15   (0.   0. 	$MR3X      		)
    arc 15 12   (0.   $R3X  	0.      	      )
   
    //top
    
    arc 16 17   ($L   0. 	$R0X  			)
    arc 17 18   ($L   $MR0X   0.  			)
    arc 18 19   ($L   0. 	$MR0X      		)
    arc 19 16   ($L   $R0X  	0.      	      )

    arc 20 21   ($L   0. 	$R1X  			)
    arc 21 22   ($L   $MR1X   0.  			)
    arc 22 23   ($L   0. 	$MR1X      		)
    arc 23 20   ($L   $R1X  	0.      	      ) 

    arc 24 25   ($L   0. 	$R2X  			)
    arc 25 26   ($L   $MR2X   0.  			) 
    arc 26 27   ($L   0. 	$MR2X      		)
    arc 27 24   ($L   $R2X  	0.      	      )

    arc 28 29   ($L   0. 	$R3X  			)
    arc 29 30   ($L   $MR3X   0.  			) 
    arc 30 31   ($L   0. 	$MR3X      		)
    arc 31 28   ($L   $R3X  	0.      	      )
);
                                        
                             
patches                              
(                                    
    patch inletfuel                  
    (                                
        (0 3 2 1) 
        (0 1 5 4)
        (3 0 4 7)
        (2 3 7 6)
        (1 2 6 5)                   
    )                                
                                     
    patch inletcoflow                   
    (                                
        (4 5 9 8)
        (7 4 8 11)
        (6 7 11 10)
        (5 6 10 9)                  
    )                  

    patch inletair                   
    (                                
        (8 9 13 12)
        (11 8 12 15)
        (10 11 15 14)
        (9 10 14 13)               
    )                                
                                            
           
    patch outlet                     
    (                                
        (16 17 18 19) 

        (16 20 21 17)
        (19 23 20 16)
        (18 22 23 19)
        (17 21 22 18) 

        (20 24 25 21)
        (23 27 24 20)
        (22 26 27 23)
        (21 25 26 22) 

        (24 28 29 25)
        (27 31 28 24)
        (26 30 31 27)
        (25 29 30 26)                   
               
    )                                
                                     
     patch atmosphere                     
    (                                
        (12 28 31 15)                    
        (15 31 30 14)                  
        (14 30 29 13)   
        (12 13 29 28)                
    )                              
    
                             
                                     
);                                   
                                     
mergePatchPairs                      
(                                    
);                                   
                                                                  
                      

                             
          
	

        
                           
                                        

