/*--------------------------------*- C++ -*----------------------------------*\
| =========                 |                                                 |
| \\      /  F ield         | OpenFOAM: The Open Source CFD Toolbox           |
|  \\    /   O peration     | Version:  2.2.2                                 |
|   \\  /    A nd           | Web:      www.OpenFOAM.org                      |
|    \\/     M anipulation  |                                                 |
\*---------------------------------------------------------------------------*/
FoamFile
{
    version     2.0;
    format      ascii;
    class       dictionary;
    location    "constant";
    object      thermophysicalProperties;
}
// * * * * * * * * * * * * * * * * * * * * * * * * * * * * * * * * * * * * * //

kineticMechanism 	"kinetics";
CHEMKINFile             "/workdir/ramaduzzi/2-OF/06-SPARC/02-Flame_D/04-Flame_D_PaSR_eps_01/kinetics/chemkin/grimech30.dat";
CHEMKINThermoFile       "/workdir/ramaduzzi/2-OF/06-SPARC/02-Flame_D/04-Flame_D_PaSR_eps_01/kinetics/chemkin/thermo30.dat";
CHEMKINTransportFile    "/workdir/ramaduzzi/2-OF/06-SPARC/02-Flame_D/04-Flame_D_PaSR_eps_01/kinetics/chemkin/transportProperties";

inertSpecie N2;

thermoType
{
    
    type            hePsiThermo;
    mixture         reactingMixture;
    transport       sutherland;
    thermo          janaf;
    energy          sensibleEnthalpy;
    equationOfState perfectGas;
    specie          specie;
}



chemistryReader 	chemkinReader;
//chemistryReader foamChemistryReader;
//foamChemistryFile "$FOAM_CASE/constant/reactionsGRI";
//foamChemistryThermoFile "$FOAM_CASE/constant/thermo.compressibleGasGRI";



// ************************************************************************* //
