/*--------------------------------*- C++ -*----------------------------------*\
| =========                 |                                                 |
| \\      /  F ield         | OpenFOAM: The Open Source CFD Toolbox           |
|  \\    /   O peration     | Version:  2.3.0                                 |
|   \\  /    A nd           | Web:      www.OpenFOAM.org                      |
|    \\/     M anipulation  |                                                 |
\*---------------------------------------------------------------------------*/
FoamFile
{
    version     7;
    format      ascii;
    class       dictionary;
    location    "system";
    object      decomposeParDict;
}
// * * * * * * * * * * * * * * * * * * * * * * * * * * * * * * * * * * * * * //

numberOfSubdomains   40;

method               hierarchical;

simpleCoeffs
{
    n                    (48 1 1);
    delta                0.001;
}

hierarchicalCoeffs
{
    n                    (10 2 2);
    delta                0.001;
    order                xyz;
}

manualCoeffs
{
    dataFile             "decompositionData";
}

// ************************************************************************* //
