/*--------------------------------*- C++ -*----------------------------------*\
| =========                 |                                                 |
| \\      /  F ield         | OpenFOAM: The Open Source CFD Toolbox           |
|  \\    /   O peration     | Version:  1.7.1                                 |
|   \\  /    A nd           | Web:      www.OpenFOAM.com                      |
|    \\/     M anipulation  |                                                 |
\*---------------------------------------------------------------------------*/

FoamFile
{
    version         2.0;
    format          ascii;
    class           dictionary;
    location        system;
    object          sampleDict;
}

// * * * * * * * * * * * * * * * * * * * * * * * * * * * * * * * * * * * * //

// Set output format : choice of
//      xmgr
//      jplot
//      gnuplot
//      raw
setFormat raw;

// Surface output format. Choice of
//      null        : suppress output
//      foamFile    : separate points, faces and values file
//      dx          : DX scalar or vector format
//      vtk         : VTK ascii format
//      raw         : x y z value format for use with e.g. gnuplot 'splot'.
//
// Note:
// other formats such as obj, stl, etc can also be written (by proxy)
// but without any values!
surfaceFormat raw;

// interpolationScheme. choice of
//      cell          : use cell-centre value only; constant over cells (default)
//      cellPoint     : use cell-centre and vertex values
//      cellPointFace : use cell-centre, vertex and face values.
// 1] vertex values determined from neighbouring cell-centre values
// 2] face values determined using the current face interpolation scheme
//    for the field (linear, gamma, etc.)
interpolationScheme cellPoint;

// Fields to sample.
fields
(
T
Z
CO
);


// Set sampling definition: choice of
//      lineUniform             evenly distributed points on line
//      face                one point per face intersection
//      midPoint            one point per cell, inbetween two face intersections
//      midPointAndFace     combination of face and midPoint
//
//      curve               specified points, not nessecary on line, uses
//                          tracking
//      cloud               specified points, uses findCell
//
// axis: how to write point coordinate. Choice of
// - x/y/z: x/y/z coordinate only
// - xyz: three columns
//  (probably does not make sense for anything but raw)
// - distance: distance from start of sampling line (if uses line) or
//             distance from first specified sampling point
//
// type specific:
//      lineUniform, face, midPoint, midPointAndFace : start and end coordinate
//      lineUniform: extra number of sampling points
//      curve, cloud: list of coordinates
type surfaces;
libs ("libsampling.so");

surfaces
(
    Radial_6
    {
        type        plane;
        planeType   pointAndNormal;
	pointAndNormalDict
	{
		basePoint	(0.006 0 0);
		normalVector	(1 0 0);
	}
    }
    Radial_15
    {
        type        plane;
        planeType   pointAndNormal;
        pointAndNormalDict
        {
                basePoint       (0.015 0 0);
                normalVector    (1 0 0);
        }
    }
    Radial_22
    {
        type        plane;
        planeType   pointAndNormal;
        pointAndNormalDict
        {
                basePoint       (0.0225 0 0);
                normalVector    (1 0 0);
        }
    }
    Radial_30
    {
        type        plane;
        planeType   pointAndNormal;
        pointAndNormalDict
        {
                basePoint       (0.030 0 0);
                normalVector    (1 0 0);
        }
    }
    Radial_60
    {
        type        plane;
        planeType   pointAndNormal;
        pointAndNormalDict
        {
                basePoint       (0.060 0 0);
                normalVector    (1 0 0);
        }
    }
    Radial_90
    {
        type        plane;
        planeType   pointAndNormal;
        pointAndNormalDict
        {
                basePoint       (0.090 0 0);
                normalVector    (1 0 0);
        }
    }
);

// *********************************************************************** //
