/*--------------------------------*- C++ -*----------------------------------*\
| =========                 |                                                 |
| \\      /  F ield         | OpenFOAM: The Open Source CFD Toolbox           |
|  \\    /   O peration     | Version:  2.2.2                                 |
|   \\  /    A nd           | Web:      www.OpenFOAM.org                      |
|    \\/     M anipulation  |                                                 |
\*---------------------------------------------------------------------------*/
FoamFile
{
    version     2.0;
    format      ascii;
    class       dictionary;
    location    "system";
    object      controlDict;
}
// * * * * * * * * * * * * * * * * * * * * * * * * * * * * * * * * * * * * * //

application     edcPimpleSMOKE_7;

startFrom       latestTime;

startTime       0;

stopAt		endTime;

endTime         3.5;

deltaT          1.e-5;

writeControl    adjustableRunTime;

writeInterval   1e-4;

adjustTimeStep	true;

maxCo		0.7;

purgeWrite      5;

writeFormat     ascii;

writePrecision  6;

writeCompression on;

timeFormat      general;

timePrecision   6;

graphFormat     raw;

runTimeModifiable true;


functions
{
	fieldAverage1
        {
            type                    fieldAverage;
            functionObjectLibs ( "libfieldFunctionObjects.so" );
            enabled               true;
            writeControl          writeTime;
            //timeStart             2;
            //timeEnd               5;
            restartOnOutput         no;
	    restartOnRestart        yes;

            fields
            (
                U
                {
                    mean           on;
                    prime2Mean  on;
                    base           time;
                }

                T
                {
                    mean           on;
                    prime2Mean  on;
                    base           time;
                }

                CH4
                {
                    mean           on;
                    prime2Mean  on;
                    base           time;
                }

                H2
                {
                    mean           on;
                    prime2Mean  on;
                    base           time;
                }

                CO2
                {
                    mean           on;
                    prime2Mean  on;
                    base           time;
                }

                H2O
                {
                    mean           on;
                    prime2Mean  on;
                    base           time;
                }

                CO
                {
                    mean           on;
                    prime2Mean  on;
		    base           time;
                }
	  );
        }
}

// ************************************************************************* //
