/*--------------------------------*- C++ -*----------------------------------*\
| =========                 |                                                 |
| \\      /  F ield         | OpenFOAM: The Open Source CFD Toolbox           |
|  \\    /   O peration     | Version:  dev                                   |
|   \\  /    A nd           | Web:      www.OpenFOAM.org                      |
|    \\/     M anipulation  |                                                 |
\*---------------------------------------------------------------------------*/
FoamFile
{
    version     2.0;
    format      ascii;
    class       dictionary;
    location    "system";
    object      setFieldsDict;
}
// * * * * * * * * * * * * * * * * * * * * * * * * * * * * * * * * * * * * * //

defaultFieldValues
(
    volScalarFieldValue T 2000
);

regions
(
    boxToCell
    {
        box (0.00001 -0.01 0.1) (0.05 0.01 0.2);
        //box (18 0.7859 5) (2 0.087322 55); 
        fieldValues
        (
            volScalarFieldValue T 2000
        );
    }
);


// ************************************************************************* //
