/*--------------------------------*- C++ -*----------------------------------*\
| =========                 |                                                 |
| \\      /  F ield         | OpenFOAM: The Open Source CFD Toolbox           |
|  \\    /   O peration     | Version:  2.2.2                                 |
|   \\  /    A nd           | Web:      www.OpenFOAM.org                      |
|    \\/     M anipulation  |                                                 |
\*---------------------------------------------------------------------------*/
FoamFile
{
    version     2.0;
    format      ascii;
    class       dictionary;
    location    "constant";
    object      thermophysicalProperties;
}
// * * * * * * * * * * * * * * * * * * * * * * * * * * * * * * * * * * * * * //

kineticMechanism 	"kinetics";
CHEMKINFile             "$FOAM_CASE/kinetics/chemkin/grimech30.dat";
CHEMKINThermoFile       "$FOAM_CASE/kinetics/chemkin/thermo30.dat";
CHEMKINTransportFile    "$FOAM_CASE/kinetics/chemkin/transportProperties";

inertSpecie N2;

thermoType
{
    
    type            hePsiThermo;
    mixture         reactingMixture;
    transport       sutherland;
    thermo          janaf;
    energy          sensibleEnthalpy;
    equationOfState perfectGas;
    specie          specie;
}

chemistryReader 	chemkinReader;

// ************************************************************************* //
