/*--------------------------------*- C++ -*----------------------------------*\
| =========                 |                                                 |
| \\      /  F ield         | OpenFOAM: The Open Source CFD Toolbox           |
|  \\    /   O peration     | Version:  2.2.2                                 |
|   \\  /    A nd           | Web:      www.OpenFOAM.org                      |
|    \\/     M anipulation  |                                                 |
\*---------------------------------------------------------------------------*/
FoamFile
{
    version     2.0;
    format      ascii;
    class       dictionary;
    location    "constant";
    object      combustionOptions;
}
// * * * * * * * * * * * * * * * * * * * * * * * * * * * * * * * * * * * * * //

folder                  "kinetics";
inertSpecie             N2;

homogeneousReactions 	on;		// chemistry on/off
momentumEquations       on;		// momentum equations on/off
energyEquation		on;		// energy equation on/off
dynamicCmixEquations    off;            // local cmix transport equations
minT			280.;		// minimum temperature in K (useful for steady-state)
maxT 			3500.;		// maximum temperature in K (useful for steady-state)
minTemperature4Chemistry 300.;

combustionModel 	"mPaSR";		// combustion model: ED | EDFR | EDC | PaSR | QLFR | mPaSR
SPARCswitch		on;		// SPARC on/off

ChiEquation		off;		// off -> algebraic Chi, on -> Chi tranport equation
Cx 			1.00; 		// Algebraic Chi coefficient default 2.00
Cg 			2.00;	        // varf equation coefficient default 2.00
maxChi			10000;

laminarDiffusion	off;		// laminar diffusion added to turbulent diffusion (default: off)
Sct			0.70;		// Schmidt number for turbulent mass diffusion (default: 0.70)
Prt			0.85;		// Prandtl number for turbulent mass diffusion (default: 0.85)

Cd1 			1.0;		//Chi tranport equation coefficients
Cd2 			1.8;
Cp1 			3.4;
Cp2 			1.4;
Cmu 			0.09;


ED
{
	A	4.;		// A parameter (default 4)
	B	0.5;		// B parameter (default 0.5)
}

EDFR
{
	A	4.;		// A parameter (default 4)
	B	0.5;		// B parameter (default 0.5)
}

EDC
{
	version                                 "v2005";                // Version: v2005 (default) | v1981 | v2016
        reactorType                             "PFR";                  // Reactor type: PFR (default) | PSR
        Ccsi                                    2.1377;                 // EDC parameter (default 2.1377)
        Ctau                                    0.40825;                // EDC parameter (default 0.40825)
        maxGammaL                               0.87;                   // EDC parameter (default 0.87)
        numberOfResidenceTimes                  100.;                   // ODE total integration time (inly in case of PSR, default 100)
        numberIterationsToUpdateChemistry       1;                      // number of CFD iteration to solve the ODE system (default 1)
        solverType                              "ODE";                  // solver type: ODE (default) | NLS

	// Additional parameters (v2016)
	CtauCoeff				0.750;			// EDC (v2016) parameter (default: 0.750)
	CgammaCoeff				1.224;			// EDC (v2016) parameter (default: 1.224)
	CReCoeff				0.090;			// EDC (v2016) parameter (default: 0.090)

	// Calculation of chemical time (v2016)
	minTemperature4Chemistry		300.;
        ChemicalTimesThreshold                  0.10;                   // maximum chemical time (default 0.10 s)
        ChemicalTimesTemperatureThreshold       300.;                   // minimum temperature for carrying out the analysis (default 300 K)
        ChemicalTimesType                       "formationRates";       // type of analysis: formationRates (default) | reactionRates | eigenvalues
}

PaSR
{
        reactorType                             "PFR";			// Reactor type: PFR (default)
        tauStarType                             "deltaTLES";               // reactor residence time (LES only): deltaTLES | minDeltaTLEStauMix
        tauMixType                              globalScale;		// Calculation of mixing time: kolmogorovScale | geometriMeanScale | globalScale (default)
        Cmixglobal	                        0.10;			// PaSR parameter (default 0.1)
        numberIterationsToUpdateChemistry       1;			// number of CFD iteration to solve the ODE system (default 1)

	// Calculation of chemical time
	minTemperature4Chemistry		300.;
        ChemicalTimesThreshold                  0.10;                   // maximum chemical time [s], default 0.10 s
        ChemicalTimesTemperatureThreshold       300.;                   // minimum temperature for carrying out the analysis [K], default 300 K
        ChemicalTimesType                       "formationRates";          // type of analysis: formationRates (default) | reactionRates | eigenvalues
}

mPaSR
{
        switch_ODE                              false;                  // default true = ODE rates, false = laminar rates
        switch_LAPACK                           true;                   // default true: true = LAPACK solver, false = EIGEN solver
        switch_Jconst                           false;                  // default false: true = constrained Jacobian, false = kinetic Jacobian
        switch_Ekeep                            true;                   // default true: true = keep conserved E subspace, false = set E fractions to 0
        activation_threshold                    1e-8;                   // default 1.e-32: a rate threshold to perform CSP decomposition

        // If switch_ODE true
        reactorType                             "PFR";                  // Reactor type: PFR (default)
        tauStarType                             "deltaTLES";            // reactor residence time (LES only): deltaTLES | minDeltaTLEStauMix | tauMix

        tauMixType                              globalScale;            // Calculation of mixing time: kolmogorovScale | geometriMeanScale | globalScale (default)
        Cmixglobal                              0.10;                   // PaSR parameter (default 0.1)

        numberIterationsToUpdateChemistry       1;                      // number of CFD iteration to solve the ODE system (default 1)
        ChemicalTimesTemperatureThreshold       300.;                   // minimum temperature for carrying out the analysis [K], default 300 K
        ChemicalTimesThreshold                  0.10;                   // maximum chemical time [s], default 0.10 s
}

QLFR
{
        reactorType                             "PFR";                  // Reactor type: PFR (default)
        numberIterationsToUpdateChemistry       1;                      // number of CFD iteration to solve the ODE system (default 1)

        // Calculation of chemical time
        minTemperature4Chemistry                300.;
        ChemicalTimesTemperatureThreshold       300.;                   // minimum temperature for carrying out the analysis [K], default 300 K
        ChemicalTimesType                       "formationRates";          // type of analysis: formationRates (default) | reactionRates | eigenvalues
}

Ode
{
        odeSolver                               "OpenSMOKE";            // Ode Solver
        relTolerance                            1e-5;                   // ODE relative tolerance (default: 1e-5)
        absTolerance                            1e-10;                  // ODE absolute tolerance (default: 1e-10)
        fullPivoting                            false;                  // full pivoting during LU factorization (default: false)
        maximumOrder                            5;                      // maximum order of ODE integration (only for OpenSMOKE++ solver, default: 5)
}

Nls
{
        relTolerance                            1e-5;                   // NLS relative tolerance (default: 1e-5)
        absTolerance                            1e-10;                  // NLS absolute tolerance (default: 1e-10)
        thresholdResiduals                      1.;                     // threshold residuals (default: 1)
        maxAttempts                             5;                      // maximum number of attempts (default: 5)
}

Spark
{
	spark           	off;
	position        	(5e-3  0 5.e-3);
	time            	0;
	temperature     	2500;
	duration        	1e-2;
	diameter        	5e-3;
	additionalMassFraction	1e-3;
}

// SPARC settings

NEURAL
{
        NEURAL off;
        folder  "/workdir/gdalessio/simulations/running/neural_try_edc/data_for_sparc";
}


FitCTree
{
        fitctree        off;
        xml             "/home/chimica2/cuoci/MyRuns/ERCOFTAC2019/CoflowFlames/Methane/DRM19/fitctree/databases/sparc.drm19.cfdf.eps_0.01.pca.6/data.of.pca.xml";
        folder          "/home/chimica2/cuoci/MyRuns/ERCOFTAC2019/CoflowFlames/Methane/DRM19/fitctree/databases/sparc.drm19.cfdf.eps_0.01.pca.6/";
}

VQ2
{
        vq2             on;
        debug           off;
	folder  "/home/openfoam/FiReSMOKE-v12-sparc/run/tutorials/SandiaFlameD_SPARC_mPaSR/data_for_sparc";
	debug   false;
        eigens  36;
        scaling AUTO;
}

PREDICTIONS
{
        PREDICTIONS     off;
        muOUT           0;      // centering factor (min)
        sigmaOUT        0.00028798;     // scaling factor (max - min)
        folder  "/workdir/ramaduzzi/2-OF/07-Predictor/01-Flame_C/11-Flame_C_kee_NO_poli/data_for_sparc";
}

SOFTMAX
{
        SOFTMAX         off;
}

SelfOrganizingMap
{
        som             off;
}


#include "isatOptions"
#include "drgOptions"

// * * * * * * * * * * * * * * * * * * * * * * * * * * * * * * * * * * * * * //
