/*--------------------------------*- C++ -*----------------------------------*\
  =========                 |
  \\      /  F ield         | OpenFOAM: The Open Source CFD Toolbox
   \\    /   O peration     | Website:  https://openfoam.org
    \\  /    A nd           | Version:  7
     \\/     M anipulation  |
\*---------------------------------------------------------------------------*/
FoamFile
{
    version     2.0;
    format      ascii;
    class       volScalarField;
    location    "0";
    object      N2;
}
// * * * * * * * * * * * * * * * * * * * * * * * * * * * * * * * * * * * * * //

dimensions      [0 0 0 0 0 0 0];

internalField   uniform 1.;

boundaryField
{
    inletAir
    {
        type            fixedValue;
        value           uniform 0.767;
    }
    atmosphere
    {
        type            zeroGradient;
    }
    outlet
    {
        type            zeroGradient;
    }
    inletJet
    {
        type            fixedValue;
        value           uniform 0.666;
    }
    inletSlot1
    {
        type            fixedValue;
        value           uniform 0.767;
    }
    inletSlot2
    {
        type            fixedValue;
        value           uniform 0.733;
    }
    jetWall
    {
        type            zeroGradient;
    }
    burnerSlot1Wall
    {
        type            zeroGradient;
    }
    burnerSlot2Wall
    {
        type            zeroGradient;
    }
    slot1SideWall
    {
        type            zeroGradient;
    }
    slot2SideWall
    {
        type            zeroGradient;
    }
}


// ************************************************************************* //
