/*--------------------------------*- C++ -*----------------------------------*\
  =========                 |
  \\      /  F ield         | OpenFOAM: The Open Source CFD Toolbox
   \\    /   O peration     | Website:  https://openfoam.org
    \\  /    A nd           | Version:  7
     \\/     M anipulation  |
\*---------------------------------------------------------------------------*/
FoamFile
{
    version     2.0;
    format      ascii;
    class       volScalarField;
    location    "0";
    object      O2;
}
// * * * * * * * * * * * * * * * * * * * * * * * * * * * * * * * * * * * * * //

dimensions      [0 0 0 0 0 0 0];

internalField   uniform 0;

boundaryField
{
    inletAir
    {
        type            fixedValue;
        value           uniform 0.233;
    }
    atmosphere
    {
        type            zeroGradient;
    }
    outlet
    {
        type            zeroGradient;
    }
    inletJet
    {
        type            fixedValue;
        value           uniform 0.202;
    }
    inletSlot1
    {
        type            fixedValue;
        value           uniform 0.233;
    }
    inletSlot2
    {
        type            fixedValue;
        value           uniform 0.223;
    }
    jetWall
    {
        type            zeroGradient;
    }
    burnerSlot1Wall
    {
        type            zeroGradient;
    }
    burnerSlot2Wall
    {
        type            zeroGradient;
    }
    slot1SideWall
    {
        type            zeroGradient;
    }
    slot2SideWall
    {
        type            zeroGradient;
    }
}


// ************************************************************************* //
