/*--------------------------------*- C++ -*----------------------------------*\
  =========                 |
  \\      /  F ield         | OpenFOAM: The Open Source CFD Toolbox
   \\    /   O peration     | Website:  https://openfoam.org
    \\  /    A nd           | Version:  7
     \\/     M anipulation  |
\*---------------------------------------------------------------------------*/
FoamFile
{
    version     2.0;
    format      ascii;
    class       volScalarField;
    location    "0";
    object      k;
}
// * * * * * * * * * * * * * * * * * * * * * * * * * * * * * * * * * * * * * //

dimensions      [0 2 -2 0 0 0 0];

internalField   uniform 1.e-05;

boundaryField
{
    inletfuel
    {
        type            fixedValue;
        value           uniform 69.0435;
    }
    inletcoflow
    {
        type            fixedValue;
        value           uniform 0.393216;
    }
    inletair
    {
        type            fixedValue;
        value           uniform 0.16335;
    }
    outlet
    {
        type            zeroGradient;
    }
    atmosphere
    {
        type            zeroGradient;
    }
}


// ************************************************************************* //
