/*--------------------------------*- C++ -*----------------------------------*\
  =========                 |
  \\      /  F ield         | OpenFOAM: The Open Source CFD Toolbox
   \\    /   O peration     | Website:  https://openfoam.org
    \\  /    A nd           | Version:  7
     \\/     M anipulation  |
\*---------------------------------------------------------------------------*/
FoamFile
{
    version     2.0;
    format      ascii;
    class       polyBoundaryMesh;
    location    "constant/polyMesh";
    object      boundary;
}
// * * * * * * * * * * * * * * * * * * * * * * * * * * * * * * * * * * * * * //

9
(
    inletfuel
    {
        type            patch;
        nFaces          0;
        startFace       1572;
    }
    inletair
    {
        type            patch;
        nFaces          0;
        startFace       1572;
    }
    outlet
    {
        type            patch;
        nFaces          26;
        startFace       1572;
    }
    axis
    {
        type            empty;
        inGroups        List<word> 1(empty);
        nFaces          0;
        startFace       1598;
    }
    leftside
    {
        type            wall;
        inGroups        List<word> 1(wall);
        nFaces          32;
        startFace       1598;
    }
    burnerwall
    {
        type            wall;
        inGroups        List<word> 1(wall);
        nFaces          0;
        startFace       1630;
    }
    front
    {
        type            wedge;
        inGroups        List<word> 1(wedge);
        nFaces          815;
        startFace       1630;
    }
    back
    {
        type            wedge;
        inGroups        List<word> 1(wedge);
        nFaces          815;
        startFace       2445;
    }
    procBoundary1to0
    {
        type            processor;
        inGroups        List<word> 1(processor);
        nFaces          27;
        startFace       3260;
        matchTolerance  0.0001;
        transform       unknown;
        myProcNo        1;
        neighbProcNo    0;
    }
)

// ************************************************************************* //
